Version 4
SHEET 1 1112 680
WIRE 336 -48 64 -48
WIRE 736 -32 560 -32
WIRE 560 0 560 -32
WIRE -32 32 -112 32
WIRE 64 32 64 -48
WIRE 64 32 48 32
WIRE 336 48 336 -48
WIRE 144 64 144 32
WIRE 560 64 560 0
WIRE 48 80 48 32
WIRE 112 80 48 80
WIRE 272 96 176 96
WIRE 112 112 80 112
WIRE -32 144 -112 144
WIRE 80 144 80 112
WIRE 80 144 48 144
WIRE 144 160 144 128
WIRE 336 160 336 144
WIRE -112 176 -112 144
WIRE 560 176 560 144
WIRE 736 176 736 -32
WIRE 560 208 560 176
WIRE 976 208 976 176
WIRE 336 272 336 240
WIRE 976 272 976 240
WIRE 512 288 416 288
WIRE 416 304 416 288
WIRE 416 368 416 336
WIRE 560 368 560 304
WIRE 560 368 416 368
WIRE 736 368 736 208
WIRE 736 368 560 368
WIRE 560 464 560 448
FLAG 560 464 0
FLAG 560 176 Vshunt-
FLAG 560 0 Vshunt+
FLAG 976 176 Vcc
FLAG 976 272 0
FLAG 144 160 Vcc
FLAG 144 32 0
FLAG -112 32 Vshunt+
FLAG -112 176 Vshunt-
FLAG 336 272 0
FLAG 336 160 out
SYMBOL res 544 48 R0
SYMATTR InstName RShunt
SYMATTR Value 0.11
SYMBOL nmos 512 208 R0
SYMATTR InstName M1
SYMATTR Value IRF2204
SYMBOL MiniSyms4\\voltage- 416 320 R0
WINDOW 123 0 0 Left 0
WINDOW 39 0 0 Left 0
SYMATTR InstName V1
SYMATTR Value PULSE(3.2 4.1 0 500m 500m 0 1)
SYMBOL MiniSyms4\\voltage- 736 192 R0
WINDOW 123 0 0 Left 0
WINDOW 39 0 0 Left 0
SYMATTR InstName V2
SYMATTR Value SINE(9 6 7)
SYMBOL MiniSyms4\\voltage- 976 224 R0
WINDOW 123 0 0 Left 0
WINDOW 39 0 0 Left 0
SYMATTR InstName V3
SYMATTR Value 12
SYMBOL res 544 352 R0
SYMATTR InstName R5
SYMATTR Value 0.001
SYMBOL res 64 128 R90
WINDOW 0 0 56 VBottom 2
WINDOW 3 32 56 VTop 2
SYMATTR InstName R1
SYMATTR Value 200
SYMBOL res 64 16 R90
WINDOW 0 0 56 VBottom 2
WINDOW 3 32 56 VTop 2
SYMATTR InstName R2
SYMATTR Value 200
SYMBOL npn 272 48 R0
SYMATTR InstName Q1
SYMATTR Value BC548A
SYMBOL res 320 144 R0
SYMATTR InstName R3
SYMATTR Value 2k
SYMBOL EXTRA\\ExtraOpamps\\LM358_NS 144 96 M180
SYMATTR InstName U1
TEXT -144 376 Left 2 !.tran 5
