Version 4
SHEET 1 1112 680
WIRE 224 -48 160 -48
WIRE 160 -32 160 -48
WIRE 736 -32 560 -32
WIRE 224 -16 224 -48
WIRE 560 0 560 -32
WIRE 560 64 560 0
WIRE 288 80 240 80
WIRE 80 96 -32 96
WIRE 160 96 160 48
WIRE 192 96 160 96
WIRE 288 112 288 80
WIRE 240 128 240 80
WIRE 192 144 192 96
WIRE 208 144 192 144
WIRE 352 160 272 160
WIRE 208 176 192 176
WIRE 560 176 560 144
WIRE 736 176 736 -32
WIRE 560 208 560 176
WIRE 976 208 976 176
WIRE 80 224 -32 224
WIRE 192 224 192 176
WIRE 192 224 160 224
WIRE 272 224 192 224
WIRE 352 224 352 160
WIRE 240 256 240 192
WIRE 976 272 976 240
WIRE 512 288 416 288
WIRE 416 304 416 288
WIRE 416 368 416 336
WIRE 560 368 560 304
WIRE 560 368 416 368
WIRE 736 368 736 208
WIRE 736 368 560 368
WIRE 560 400 560 368
FLAG 224 -16 0
FLAG 560 400 0
FLAG 560 176 Vshunt-
FLAG 560 0 Vshunt+
FLAG -32 96 Vshunt+
FLAG -32 224 Vshunt-
FLAG 976 176 Vcc
FLAG 976 272 0
FLAG 288 112 0
FLAG 240 256 Vcc
FLAG 352 160 out
FLAG 192 16 0
FLAG 192 304 0
SYMBOL res 176 80 R90
WINDOW 0 0 56 VBottom 2
WINDOW 3 31 61 VTop 2
SYMATTR InstName R1
SYMATTR Value 1.2k
SYMBOL res 176 208 R90
WINDOW 0 0 56 VBottom 2
WINDOW 3 32 56 VTop 2
SYMATTR InstName R2
SYMATTR Value 1.2k
SYMBOL res 368 208 R90
WINDOW 0 0 56 VBottom 2
WINDOW 3 32 56 VTop 2
SYMATTR InstName R3
SYMATTR Value 3.9k
SYMBOL res 176 64 R180
WINDOW 0 36 76 Left 2
WINDOW 3 36 40 Left 2
SYMATTR InstName R4
SYMATTR Value 3.9k
SYMBOL res 544 48 R0
SYMATTR InstName RShunt
SYMATTR Value 0.11
SYMBOL nmos 512 208 R0
SYMATTR InstName M1
SYMATTR Value IRF2204
SYMBOL MiniSyms4\\voltage- 416 320 R0
WINDOW 123 0 0 Left 0
WINDOW 39 0 0 Left 0
SYMATTR InstName V1
SYMATTR Value PULSE(3.2 4.1 0 500m 500m 0 1)
SYMBOL MiniSyms4\\voltage- 736 192 R0
WINDOW 123 0 0 Left 0
WINDOW 39 0 0 Left 0
SYMATTR InstName V2
SYMATTR Value 12
SYMBOL MiniSyms4\\voltage- 976 224 R0
WINDOW 123 0 0 Left 0
WINDOW 39 0 0 Left 0
SYMATTR InstName V3
SYMATTR Value 5
SYMBOL EXTRA\\ExtraOpamps\\LM358_NS 240 160 M180
SYMATTR InstName U2
SYMBOL res 176 0 R0
SYMATTR InstName R5
SYMATTR Value 590
SYMBOL res 176 208 R0
SYMATTR InstName R6
SYMATTR Value 590
TEXT -144 376 Left 2 !.tran 5
