Version 4
SHEET 1 1172 1060
WIRE 640 48 368 48
WIRE 368 176 368 48
WIRE 272 256 192 256
WIRE 320 256 272 256
WIRE 640 256 640 48
WIRE 368 288 368 272
WIRE 368 304 368 288
WIRE -400 384 -400 352
WIRE -432 400 -624 400
WIRE -80 400 -80 368
WIRE -304 416 -368 416
WIRE -432 432 -480 432
WIRE 368 432 368 384
WIRE 416 432 368 432
WIRE 640 432 640 288
WIRE 640 432 416 432
WIRE 416 448 416 432
WIRE -80 464 -80 432
WIRE -400 480 -400 448
WIRE -480 560 -480 432
WIRE -432 560 -480 560
WIRE -304 560 -304 416
WIRE -304 560 -352 560
WIRE -480 576 -480 560
WIRE 752 688 656 688
WIRE 832 688 816 688
WIRE 992 688 832 688
WIRE -480 720 -480 656
WIRE 880 768 880 720
WIRE 832 784 832 688
WIRE 848 784 832 784
WIRE 160 800 -32 800
WIRE 992 800 992 688
WIRE 992 800 912 800
WIRE 1136 800 1072 800
WIRE 368 816 224 816
WIRE 544 816 368 816
WIRE 656 816 656 688
WIRE 656 816 624 816
WIRE 688 816 656 816
WIRE 816 816 768 816
WIRE 848 816 816 816
WIRE 160 832 64 832
WIRE 368 848 368 816
WIRE 880 864 880 832
WIRE -32 880 -32 800
WIRE 64 880 64 832
WIRE 192 880 192 848
WIRE -512 896 -512 848
WIRE 816 896 816 816
WIRE -32 944 -32 912
WIRE 32 944 -32 944
WIRE 64 944 64 912
WIRE 64 944 32 944
WIRE 368 960 368 928
WIRE -512 976 -512 928
WIRE 32 976 32 944
WIRE 816 1008 816 960
FLAG 416 448 0
FLAG 368 288 Vshunt+
FLAG -624 400 Vshunt+
FLAG -480 720 0
FLAG -400 480 Vcc
FLAG -400 352 0
FLAG -80 368 Vcc
FLAG -80 464 0
FLAG -304 416 Iout
FLAG 368 48 Vdut
FLAG 272 256 G
FLAG -512 848 V5V
FLAG -512 976 0
FLAG 32 976 0
FLAG 368 960 0
FLAG 192 880 Vcc
FLAG 192 784 0
FLAG 1136 800 G
FLAG 816 1008 0
FLAG 880 720 Vcc
FLAG 880 864 0
FLAG 1072 800 0
SYMBOL nmos 320 176 R0
SYMATTR InstName M1
SYMATTR Value IRF2204
SYMBOL res 352 288 R0
SYMATTR InstName R1
SYMATTR Value 0.11
SYMBOL MiniSyms4\\voltage- 640 272 R0
WINDOW 123 0 0 Left 0
WINDOW 39 0 0 Left 0
SYMATTR InstName Vdut
SYMATTR Value PWL(0 12 1 9 2 5 3 3.3 4 2)
SYMBOL EXTRA\\ExtraOpamps\\LM358_NS -400 416 M180
SYMATTR InstName U1
SYMBOL res -336 544 R90
WINDOW 0 0 56 VBottom 2
WINDOW 3 32 56 VTop 2
SYMATTR InstName R2
SYMATTR Value 3,3k
SYMBOL res -496 560 R0
SYMATTR InstName R3
SYMATTR Value 1k
SYMBOL MiniSyms4\\voltage- -80 416 R0
WINDOW 123 0 0 Left 0
WINDOW 39 0 0 Left 0
SYMATTR InstName V3
SYMATTR Value 9
SYMBOL MiniSyms4\\voltage- -512 912 R0
WINDOW 123 0 0 Left 0
WINDOW 39 0 0 Left 0
SYMATTR InstName V2
SYMATTR Value 5
SYMBOL MiniSyms4\\signal- 64 896 R0
WINDOW 123 0 0 Left 0
WINDOW 39 0 0 Left 0
SYMATTR Value PULSE(0 5 0 16u 16u 0 32u)
SYMATTR InstName V4
SYMBOL MiniSyms4\\signal- -32 896 R0
WINDOW 123 0 0 Left 0
WINDOW 39 0 0 Left 0
SYMATTR Value PULSE(0 5 0 0.5m 0.5m 0 1m)
SYMATTR InstName V5
SYMBOL res 352 832 R0
SYMATTR InstName R4
SYMATTR Value 1k
SYMBOL Opamps\\UniversalOpamp 192 816 M180
SYMATTR InstName U3
SYMBOL EXTRA\\ExtraOpamps\\LM358_NS 880 800 R0
SYMATTR InstName U2
SYMBOL res 640 800 R90
WINDOW 0 0 56 VBottom 2
WINDOW 3 32 56 VTop 2
SYMATTR InstName R5
SYMATTR Value 1k
SYMBOL res 784 800 R90
WINDOW 0 0 56 VBottom 2
WINDOW 3 32 56 VTop 2
SYMATTR InstName R6
SYMATTR Value 1k
SYMBOL cap 816 672 R90
WINDOW 0 0 32 VBottom 2
WINDOW 3 32 32 VTop 2
SYMATTR InstName C1
SYMATTR Value 100n
SYMBOL cap 800 896 R0
SYMATTR InstName C2
SYMATTR Value 100n
TEXT 184 472 Left 2 !.tran 25m
