Version 4
SHEET 1 880 1060
WIRE 640 48 368 48
WIRE 368 176 368 48
WIRE 272 256 192 256
WIRE 320 256 272 256
WIRE 640 256 640 48
WIRE 368 288 368 272
WIRE 368 304 368 288
WIRE -400 384 -400 352
WIRE -432 400 -624 400
WIRE -80 400 -80 368
WIRE -304 416 -368 416
WIRE -432 432 -480 432
WIRE 368 432 368 384
WIRE 416 432 368 432
WIRE 640 432 640 288
WIRE 640 432 416 432
WIRE 416 448 416 432
WIRE -80 464 -80 432
WIRE -400 480 -400 448
WIRE -480 560 -480 432
WIRE -432 560 -480 560
WIRE -304 560 -304 416
WIRE -304 560 -352 560
WIRE -480 576 -480 560
WIRE -480 720 -480 656
WIRE 192 720 192 704
WIRE 192 720 96 720
WIRE -160 768 -160 736
WIRE -32 800 -64 800
WIRE -16 800 -32 800
WIRE 96 800 96 720
WIRE 96 800 64 800
WIRE -256 848 -336 848
WIRE -160 848 -176 848
WIRE -128 848 -160 848
WIRE -512 896 -512 848
WIRE -336 912 -336 848
WIRE -160 912 -160 848
WIRE -512 976 -512 928
WIRE -336 1008 -336 944
WIRE -160 1024 -160 992
WIRE -64 1040 -64 896
FLAG 416 448 0
FLAG 368 288 Vshunt+
FLAG -624 400 Vshunt+
FLAG -480 720 0
FLAG -400 480 Vcc
FLAG -400 352 0
FLAG -80 368 Vcc
FLAG -80 464 0
FLAG -304 416 Iout
FLAG 368 48 Vdut
FLAG 272 256 G
FLAG 192 704 Vcc
FLAG -336 1008 0
FLAG -64 1040 0
FLAG -32 800 G
FLAG -512 848 V5V
FLAG -512 976 0
FLAG -160 1024 0
FLAG -160 736 V5V
FLAG -336 848 Vdac
SYMBOL nmos 320 176 R0
SYMATTR InstName M1
SYMATTR Value IRF2204
SYMBOL res 352 288 R0
SYMATTR InstName R1
SYMATTR Value 0.11
SYMBOL MiniSyms4\\voltage- 640 272 R0
WINDOW 123 0 0 Left 0
WINDOW 39 0 0 Left 0
SYMATTR InstName Vdut
SYMATTR Value PWL(0 12 1 9 2 5 3 3.3 4 2)
SYMBOL EXTRA\\ExtraOpamps\\LM358_NS -400 416 M180
SYMATTR InstName U1
SYMBOL res -336 544 R90
WINDOW 0 0 56 VBottom 2
WINDOW 3 32 56 VTop 2
SYMATTR InstName R2
SYMATTR Value 3,3k
SYMBOL res -496 560 R0
SYMATTR InstName R3
SYMATTR Value 1k
SYMBOL MiniSyms4\\voltage- -80 416 R0
WINDOW 123 0 0 Left 0
WINDOW 39 0 0 Left 0
SYMATTR InstName V3
SYMATTR Value 9
SYMBOL MiniSyms4\\signal- -336 928 R0
WINDOW 123 0 0 Left 0
WINDOW 39 0 0 Left 0
SYMATTR Value PULSE(0 5 0 0.5 0.5 0 1)
SYMATTR InstName V1
SYMBOL npn -128 800 R0
SYMATTR InstName Q1
SYMATTR Value 2N2222
SYMBOL res -160 832 R90
WINDOW 0 0 56 VBottom 2
WINDOW 3 32 56 VTop 2
SYMATTR InstName R8
SYMATTR Value 27k
SYMBOL res 80 784 R90
WINDOW 0 0 56 VBottom 2
WINDOW 3 32 56 VTop 2
SYMATTR InstName R5
SYMATTR Value 155
SYMBOL MiniSyms4\\voltage- -512 912 R0
WINDOW 123 0 0 Left 0
WINDOW 39 0 0 Left 0
SYMATTR InstName V2
SYMATTR Value 5
SYMBOL res -176 896 R0
SYMATTR InstName R4
SYMATTR Value 70k
SYMBOL res -176 752 R0
SYMATTR InstName R6
SYMATTR Value 40k
TEXT 180 472 Left 2 !.tran 4
